15
PDB File
 C   -0.144000    0.049000    0.101000
 N    0.235000    0.201000    1.497000
 C    1.475000   -0.432000    1.924000
 C   -0.525000    0.896000    2.360000
 O   -0.271000    1.070000    3.561000
 H   -1.085000    0.569000   -0.088000
 H   -0.269000   -1.011000   -0.149000
 H    0.629000    0.469000   -0.553000
 H    2.321000   -0.030000    1.355000
 H    1.426000   -1.513000    1.755000
 H    1.624000   -0.236000    2.985000
 H   -1.432000    1.317000    1.899000
 O   -2.505000    2.610000    4.188000
 H   -2.184000    3.493000    3.958000
 H   -1.696000    2.060000    4.127000
