13
PDB File
 C    0.031000    0.239000    0.014000
 S    0.043000   -0.031000    1.815000
 C    1.851000   -0.023000    2.041000
 O   -0.494000    1.257000    2.465000
 H    0.557000    1.170000   -0.211000
 H   -1.014000    0.308000   -0.297000
 H    0.507000   -0.614000   -0.478000
 H    2.046000   -0.140000    3.110000
 H    2.245000    0.932000    1.684000
 H    2.286000   -0.862000    1.491000
 O    1.050000    3.272000    1.357000
 H    1.719000    3.445000    2.034000
 H    0.424000    2.661000    1.807000
